---- qbsp / ericw-tools 2.0.0-alpha8-26-ged62ec10 ----

--- Options Summary ---
    "nocolor" was set to "1" (from command line)

Input file: C:\Programs\Quake-Level-Design-Starter-Kit\maps\dmPrisonBreak\dmprisonbreak-compile.map
Output file: C:\Programs\Quake-Level-Design-Starter-Kit\maps\dmPrisonBreak\dmprisonbreak.bsp

INFO: using built-in palette.
     14 entities
      5 unique textures
     33 texinfos
    388 unique planes

INFO: world extents calculated to 2824 units
      224 brushes
    1,348 sides
      596 side bevels

            0 texture frames added
WARNING: unable to find texture skip
Processing hull 0...
    224 SOLID brushes
    224 brushes total
    1,348 visible sides
INFO: calculating BSP for 224 brushes with 1348 sides
      224 brushes
    1,348 visible faces
    2,358 nodes
    1,665 expensive split nodes
      693 mid-split nodes
    2,359 leaves
    1,386 EMPTY leafs
      973 SOLID leafs
    2,359 leafs total
    24 max tree height
    13 avg tree height
    188 tiny portals
    9,409 tree portals
WARNING: Reached occupant "info_player_start" at (-112 0 40), no filling performed.
Leak file written to dmprisonbreak.pts
            7 portals written to dmprisonbreak.leak.prt
    188 tiny portals
    9,409 tree portals
    3,739 sides visible
    3,739 makefaces
      388 merged
      938 subdivided
    63 nodes pruned
    1,386 EMPTY leafs
      910 SOLID leafs
    2,296 leafs total
    24 max tree height
    13 avg tree height
         2 edges degenerated
     2,693 edges added by tjunctions
     4,208 faces optimized through MWT
    11,120 triangles computed from MWT
       751 faces created via optimization of MWT triangles
    11,515 edges
     5,040 faces
Processing hull 1...
Processing hull 2...
WARNING: worldspawn at 0 0 0 has long value for key wad (length 191 >= 127)
Writing dmprisonbreak.bsp as Quake BSP bsp29
Wrote dmprisonbreak.bsp

count   lump name    byte size 
      1 models               64
    553 planes            11060
   4707 vertexes          56484
   2295 nodes             55080
     31 texinfos           1240
   5040 faces            100800
   2701 clipnodes         21608
   1387 leafs             38836
   5704 marksurfaces      11408
  11516 edges             46064
  21281 surfedges         85124
      5 textures          54584
        lightdata             0
        visdata               0
        entdata            1127

0.580s seconds elapsed


