---- qbsp / ericw-tools 2.0.0-alpha8-26-ged62ec10 ----

--- Options Summary ---
    "nocolor" was set to "1" (from command line)

Input file: C:\Programs\Quake-Level-Design-Starter-Kit\maps\dmPrisonBreak\dmprisonbreak-compile.map
Output file: C:\Programs\Quake-Level-Design-Starter-Kit\maps\dmPrisonBreak\dmprisonbreak.bsp

INFO: using built-in palette.
     43 entities
      6 unique textures
     41 texinfos
    804 unique planes

INFO: world extents calculated to 3008 units
      845 brushes
    4,902 sides
    3,149 side bevels

            0 texture frames added
WARNING: unable to find texture skip
Processing hull 0...
    845 SOLID brushes
    845 brushes total
    4,902 visible sides
INFO: calculating BSP for 845 brushes with 4902 sides
      845 brushes
    4,902 visible faces
    8,240 nodes
      991 expensive split nodes
    7,249 mid-split nodes
    8,241 leaves
    4,431 EMPTY leafs
    3,810 SOLID leafs
    8,241 leafs total
    32 max tree height
    16 avg tree height
    291 tiny portals
    30,093 tree portals
    2,043 outside leaves
    0 detail filled leafs
      845 brushes
    1,905 visible faces
    2,997 non-visible faces
    2,776 nodes
    1,353 non-visible nodes
    2,776 expensive split nodes
    2,777 leaves
    1,304 EMPTY leafs
    1,473 SOLID leafs
    2,777 leafs total
    25 max tree height
    13 avg tree height
    142 tiny portals
    11,809 tree portals
    698 outside leaves
    0 detail filled leafs
    142 tiny portals
    11,809 tree portals
    3,200 sides visible
    3,200 makefaces
      932 merged
      271 subdivided
    1,422 nodes pruned
    7 tiny portals
      606 player-occupiable leaves
      606 clusters of leaves
    1,563 vis portals
      749 SOLID leafs
      606 EMPTY leafs
    1,355 leafs total
    24 max tree height
    13 avg tree height
    1,803 edges added by tjunctions
    2,284 faces optimized through MWT
    6,405 triangles computed from MWT
      461 faces created via optimization of MWT triangles
    6,343 edges
    3,000 faces
Processing hull 1...
Processing hull 2...
WARNING: worldspawn at 0 0 0 has long value for key wad (length 191 >= 127)
Writing dmprisonbreak.bsp as Quake BSP bsp29
Wrote dmprisonbreak.bsp

count   lump name    byte size 
      1 models               64
   1472 planes            29440
   3323 vertexes          39876
   1354 nodes             32496
     25 texinfos           1000
   3000 faces             60000
   4723 clipnodes         37784
    607 leafs             16996
   3470 marksurfaces       6940
   6344 edges             25376
  12660 surfedges         50640
      6 textures          60068
        lightdata             0
        visdata               0
        entdata            3145

1.751s seconds elapsed


