---- qbsp / ericw-tools 2.0.0-alpha8-26-ged62ec10 ----

--- Options Summary ---
    "nocolor" was set to "1" (from command line)

Input file: C:\Programs\Quake-Level-Design-Starter-Kit\maps\dmPrisonBreak\dmprisonbreak-compile.map
Output file: C:\Programs\Quake-Level-Design-Starter-Kit\maps\dmPrisonBreak\dmprisonbreak.bsp

INFO: using built-in palette.
     14 entities
      4 unique textures
     27 texinfos
    386 unique planes

INFO: world extents calculated to 2824 units
      224 brushes
    1,348 sides
      596 side bevels

            0 texture frames added
WARNING: unable to find texture skip
Processing hull 0...
    224 SOLID brushes
    224 brushes total
    1,348 visible sides
INFO: calculating BSP for 224 brushes with 1348 sides
      224 brushes
    1,348 visible faces
    2,356 nodes
    1,665 expensive split nodes
      691 mid-split nodes
    2,357 leaves
    1,386 EMPTY leafs
      971 SOLID leafs
    2,357 leafs total
    25 max tree height
    13 avg tree height
    175 tiny portals
    9,408 tree portals
WARNING: Reached occupant "info_player_start" at (-112 0 40), no filling performed.
Leak file written to dmprisonbreak.pts
            7 portals written to dmprisonbreak.leak.prt
    175 tiny portals
    9,408 tree portals
    3,742 sides visible
    3,742 makefaces
      389 merged
      938 subdivided
    62 nodes pruned
    1,386 EMPTY leafs
      909 SOLID leafs
    2,295 leafs total
    25 max tree height
    13 avg tree height
         2 edges degenerated
     2,691 edges added by tjunctions
     4,208 faces optimized through MWT
    11,117 triangles computed from MWT
       750 faces created via optimization of MWT triangles
    11,509 edges
     5,041 faces
Processing hull 1...
Processing hull 2...
WARNING: worldspawn at 0 0 0 has long value for key wad (length 191 >= 127)
Writing dmprisonbreak.bsp as Quake BSP bsp29
Wrote dmprisonbreak.bsp

count   lump name    byte size 
      1 models               64
    552 planes            11040
   4703 vertexes          56436
   2294 nodes             55056
     25 texinfos           1000
   5041 faces            100820
   2701 clipnodes         21608
   1387 leafs             38836
   5703 marksurfaces      11406
  11510 edges             46040
  21282 surfedges         85128
      4 textures          32780
        lightdata             0
        visdata               0
        entdata            1126

0.594s seconds elapsed


